Version 4
SHEET 1 880 680
WIRE 128 -112 -64 -112
WIRE -64 -96 -64 -112
WIRE -64 16 -64 -16
WIRE -64 32 -64 16
WIRE 128 48 128 -112
WIRE 16 80 -64 80
WIRE -112 112 -176 112
WIRE 16 128 16 80
WIRE 16 128 -64 128
WIRE -176 144 -176 112
WIRE 128 160 128 128
WIRE -176 256 -176 224
WIRE -64 256 -64 128
FLAG -176 256 0
FLAG -64 256 0
FLAG 128 160 0
FLAG -64 16 out
SYMBOL nmos4 -112 32 R0
SYMATTR InstName M1
SYMATTR Value n_16n
SYMATTR Value2 l=32n w=900n
SYMBOL voltage 128 32 R0
WINDOW 123 0 0 Left 0
WINDOW 39 0 0 Left 0
SYMATTR InstName V1
SYMATTR Value 0.7
SYMBOL voltage -176 128 R0
WINDOW 123 24 124 Left 2
WINDOW 39 0 0 Left 0
SYMATTR InstName V2
SYMATTR Value 0.58
SYMATTR Value2 AC 1
SYMBOL res -80 -112 R0
SYMATTR InstName R1
SYMATTR Value 3.6k
TEXT 336 -40 Left 2 !.lib 16n_models.txt
TEXT -210 280 Left 2 !.dc v2 0 1 1m
