Version 4
SHEET 1 880 680
WIRE -176 -96 -448 -96
WIRE -448 -32 -448 -96
WIRE -176 -16 -176 -96
WIRE -448 80 -448 48
WIRE -448 112 -448 80
WIRE -176 144 -176 64
WIRE -352 160 -448 160
WIRE -496 192 -640 192
WIRE -352 208 -352 160
WIRE -352 208 -448 208
WIRE -640 240 -640 192
WIRE -448 272 -448 208
WIRE -640 368 -640 320
FLAG -448 272 0
FLAG -640 368 0
FLAG -176 144 0
FLAG -448 80 out
SYMBOL nmos4 -496 112 R0
SYMATTR InstName M1
SYMATTR Value N_1u
SYMATTR Value2 l={L*10u} w=31.58m
SYMBOL voltage -640 224 R0
WINDOW 123 24 124 Left 2
WINDOW 39 0 0 Left 0
SYMATTR InstName V1
SYMATTR Value {VGS}
SYMBOL res -464 -48 R0
SYMATTR InstName R1
SYMATTR Value 21.4
SYMBOL voltage -176 -32 R0
WINDOW 123 0 0 Left 0
WINDOW 39 0 0 Left 0
SYMATTR InstName V2
SYMATTR Value 2
TEXT 144 64 Left 2 !.lib transistor_models.txt
TEXT 152 120 Left 2 !.param L=0.1
TEXT 144 176 Left 2 !.param VGS=0.9
TEXT -674 392 Left 2 !.dc V1 0 2 1m
