Version 4
SHEET 1 1744 680
WIRE -64 -320 -112 -320
WIRE 96 -320 16 -320
WIRE 96 -224 96 -320
WIRE -112 -208 -112 -320
WIRE -16 -160 -112 -160
WIRE -160 -128 -256 -128
WIRE -16 -112 -16 -160
WIRE -16 -112 -112 -112
WIRE 96 -96 96 -144
WIRE -256 -48 -256 -128
WIRE -112 -48 -112 -112
WIRE -256 112 -256 32
WIRE -256 224 -256 192
FLAG -112 -48 0
FLAG 96 -96 0
FLAG -112 -320 out
FLAG -256 224 0
SYMBOL nmos4 -160 -208 R0
SYMATTR InstName M1
SYMATTR Value n_32n
SYMATTR Value2 l=96n w=1.8u
SYMBOL voltage 96 -240 R0
WINDOW 123 0 0 Left 0
WINDOW 39 0 0 Left 0
SYMATTR InstName VDS
SYMATTR Value 1
SYMBOL res 32 -336 R90
WINDOW 0 0 56 VBottom 2
WINDOW 3 32 56 VTop 2
SYMATTR InstName R1
SYMATTR Value 14.13k
SYMBOL voltage -256 -64 R0
WINDOW 123 0 0 Left 0
WINDOW 39 0 0 Left 0
SYMATTR InstName V1
SYMATTR Value SINE(0 50m 1k)
SYMBOL voltage -256 96 R0
WINDOW 123 0 0 Left 0
WINDOW 39 0 0 Left 0
SYMATTR InstName V2
SYMATTR Value 700m
TEXT 1192 -312 Left 2 !.lib 32n_lp.txt
TEXT 1184 -280 Left 2 !.tran 10m
