Version 4
SHEET 1 936 680
WIRE 352 48 208 48
WIRE 208 112 208 48
WIRE 352 144 352 48
WIRE 304 160 208 160
WIRE 160 192 64 192
WIRE 64 224 64 192
WIRE 208 224 208 208
WIRE 304 224 304 160
WIRE 304 224 208 224
WIRE 64 336 64 304
WIRE 208 336 208 224
WIRE 352 336 352 224
FLAG 208 336 0
FLAG 64 336 0
FLAG 352 336 0
SYMBOL nmos4 160 112 R0
SYMATTR InstName M1
SYMATTR Value2 l=1u w=10u
SYMATTR Value N_50n
SYMBOL voltage 64 208 R0
WINDOW 123 0 0 Left 0
WINDOW 39 0 0 Left 0
SYMATTR InstName VGS
SYMATTR Value 0.35
SYMBOL voltage 352 128 R0
WINDOW 123 0 0 Left 0
WINDOW 39 0 0 Left 0
SYMATTR InstName VDS
SYMATTR Value 0.6
TEXT 208 -64 Left 2 !.lib transistor_models.txt
TEXT 208 -32 Left 2 !.dc VGS 0 1.2 1m
