Version 4
SHEET 1 880 680
WIRE 64 -144 -80 -144
WIRE 208 -144 64 -144
WIRE 320 -144 208 -144
WIRE 384 -144 320 -144
WIRE 384 -128 384 -144
WIRE 64 -112 64 -144
WIRE -80 -48 -80 -144
WIRE 208 -16 208 -144
WIRE 64 0 64 -32
WIRE 160 0 64 0
WIRE 320 32 320 -144
WIRE 320 32 208 32
WIRE 208 112 208 80
WIRE -80 176 -80 32
WIRE 208 176 208 112
WIRE 208 176 -80 176
FLAG 384 -128 0
FLAG 208 112 vout
SYMBOL voltage 64 -128 R0
WINDOW 123 24 124 Left 2
WINDOW 39 0 0 Left 0
SYMATTR Value2 AC 1
SYMATTR InstName VSG
SYMATTR Value {vsg}
SYMBOL pmos4 160 80 M180
SYMATTR InstName M1
SYMATTR Value P_50n
SYMATTR Value2 l=1u w=10u
SYMBOL voltage -80 -64 R0
WINDOW 123 0 0 Left 0
WINDOW 39 0 0 Left 0
SYMATTR InstName VSD
SYMATTR Value 0.6
TEXT -88 296 Left 2 !.lib transistor_models.txt
TEXT -88 328 Left 2 !.ac dec 10 1 10T
TEXT -88 392 Left 2 !.meas AC ft when mag(Id(M1)/Ig(M1))=1
TEXT -88 360 Left 2 !.step param vsg 0 1.2 0.01
