Version 4
SHEET 1 880 680
WIRE 144 48 0 48
WIRE 288 48 144 48
WIRE 400 48 288 48
WIRE 464 48 400 48
WIRE 464 64 464 48
WIRE 144 80 144 48
WIRE 0 144 0 48
WIRE 288 176 288 48
WIRE 144 192 144 160
WIRE 240 192 144 192
WIRE 400 224 400 48
WIRE 400 224 288 224
WIRE 288 304 288 272
WIRE 288 336 288 304
WIRE 0 464 0 224
WIRE 288 464 288 416
WIRE 288 464 0 464
FLAG 464 64 0
FLAG 288 304 vout
SYMBOL voltage 144 64 R0
WINDOW 123 24 124 Left 2
WINDOW 39 0 0 Left 0
SYMATTR Value2 AC 1
SYMATTR InstName VSG
SYMATTR Value {vsg}
SYMBOL pmos4 240 272 M180
SYMATTR InstName M1
SYMATTR Value P_50n
SYMATTR Value2 l=1u w=10u
SYMBOL voltage 0 128 R0
WINDOW 123 0 0 Left 0
WINDOW 39 0 0 Left 0
SYMATTR InstName VSD
SYMATTR Value 0.6
SYMBOL ind 272 320 R0
SYMATTR InstName L1
SYMATTR Value 100T
TEXT -8 488 Left 2 !.lib transistor_models.txt
TEXT -8 520 Left 2 !.ac dec 10 1 2G
TEXT -8 584 Left 2 !.meas AC gmro max mag(V(vout))
TEXT -8 552 Left 2 !.step param vsg 0 1.2 0.01
