Version 4
SHEET 1 1000 680
WIRE -128 -80 -128 -144
WIRE 160 -80 160 -144
WIRE 944 0 944 -64
WIRE -128 48 -128 0
WIRE -128 48 -208 48
WIRE 160 48 160 0
WIRE 240 48 160 48
WIRE -128 112 -128 48
WIRE 160 112 160 48
WIRE -48 160 -128 160
WIRE 160 160 80 160
WIRE 944 176 944 80
WIRE -176 192 -304 192
WIRE 352 192 208 192
WIRE -48 208 -48 160
WIRE -48 208 -128 208
WIRE 80 208 80 160
WIRE 160 208 80 208
WIRE -128 256 -128 208
WIRE 16 256 -128 256
WIRE 160 256 160 208
WIRE 160 256 16 256
WIRE -304 272 -304 192
WIRE 352 272 352 192
WIRE 16 304 16 256
WIRE 16 304 -48 304
WIRE 96 304 16 304
WIRE 208 304 96 304
WIRE 96 336 96 304
WIRE -48 352 -48 304
WIRE -304 400 -304 352
WIRE 352 400 352 352
WIRE -48 464 -48 432
WIRE 96 464 96 416
WIRE 96 464 -48 464
WIRE 96 480 96 464
FLAG 96 480 0
FLAG 352 400 0
FLAG -304 400 0
FLAG 160 -144 dd
FLAG -128 -144 dd
FLAG 944 176 0
FLAG 944 -64 dd
FLAG 208 304 ss
IOPIN 208 304 Out
FLAG 240 48 out2
IOPIN 240 48 Out
FLAG -208 48 out1
IOPIN -208 48 Out
SYMBOL nmos4 -176 112 R0
SYMATTR InstName M1
SYMATTR Value n_32n
SYMATTR Value2 l=96n w=1.8u
SYMBOL nmos4 208 112 M0
SYMATTR InstName M2
SYMATTR Value n_32n
SYMATTR Value2 l=96n w=1.8u
SYMBOL current 96 336 R0
WINDOW 123 0 0 Left 0
WINDOW 39 0 0 Left 0
SYMATTR InstName I1
SYMATTR Value 70.76µ
SYMBOL voltage -304 256 R0
WINDOW 3 -248 98 Left 2
WINDOW 123 0 0 Left 0
WINDOW 39 0 0 Left 0
SYMATTR InstName V1
SYMATTR Value SINE(0.5 50m 1.5k)
SYMBOL voltage 352 256 R0
WINDOW 123 0 0 Left 0
WINDOW 39 0 0 Left 0
SYMATTR InstName V2
SYMATTR Value SINE(0.5 -50m 1.5k)
SYMBOL res -144 -96 R0
SYMATTR InstName R1
SYMATTR Value 14.13k
SYMBOL res 144 -96 R0
SYMATTR InstName R2
SYMATTR Value 14.13k
SYMBOL voltage 944 -16 R0
WINDOW 123 0 0 Left 0
WINDOW 39 0 0 Left 0
SYMATTR InstName V3
SYMATTR Value 1
SYMBOL res -64 336 R0
SYMATTR InstName R3
SYMATTR Value 400k
TEXT 704 -240 Left 2 !.include 32n_lp.txt
TEXT -338 504 Left 2 !.tran 10m
