Version 4
SHEET 1 880 680
WIRE -576 -32 -576 -112
WIRE -464 -32 -576 -32
WIRE -576 -16 -576 -32
WIRE -624 0 -880 0
WIRE -464 32 -464 -32
WIRE -464 32 -576 32
WIRE -880 112 -880 0
WIRE -576 128 -576 80
WIRE -368 128 -576 128
WIRE -576 160 -576 128
WIRE -880 208 -880 192
WIRE -464 208 -576 208
WIRE -624 240 -768 240
WIRE -576 272 -576 256
WIRE -464 272 -464 208
WIRE -464 272 -576 272
WIRE 144 304 144 208
WIRE -768 336 -768 240
WIRE 144 464 144 384
WIRE -576 480 -576 272
WIRE -768 496 -768 416
WIRE -768 656 -768 576
FLAG -880 208 0
FLAG -576 -112 VDD
FLAG -576 480 0
FLAG -368 128 out
FLAG 144 464 0
FLAG 144 208 VDD
FLAG -768 656 0
SYMBOL voltage -880 96 R0
WINDOW 123 0 0 Left 0
WINDOW 39 0 0 Left 0
SYMATTR InstName V2
SYMATTR Value 0.3
SYMBOL pmos4 -624 80 M180
SYMATTR InstName M1
SYMATTR Value p_32n
SYMATTR Value2 l=128n w=10.4u
SYMBOL nmos4 -624 160 R0
SYMATTR InstName M2
SYMATTR Value n_32n
SYMATTR Value2 l=96n w=3.84u
SYMBOL voltage -768 320 R0
WINDOW 123 0 0 Left 0
WINDOW 39 0 0 Left 0
SYMATTR InstName V1
SYMATTR Value 0.7
SYMBOL voltage 144 288 R0
WINDOW 123 0 0 Left 0
WINDOW 39 0 0 Left 0
SYMATTR InstName V3
SYMATTR Value 1
SYMBOL voltage -768 480 R0
WINDOW 123 0 0 Left 0
WINDOW 39 0 0 Left 0
SYMATTR InstName V4
SYMATTR Value SINE(0 10m 1k)
TEXT 464 16 Left 2 !.lib 32n_lp.txt
TEXT 464 48 Left 2 !.tran 10m
TEXT 464 80 Left 2 !;meas AC gmro max mag(V(out))
TEXT 464 112 Left 2 !;step param VSG 650m 800m 1m
TEXT 464 144 Left 2 !;step param k 1 10 1
