Version 4
SHEET 1 1100 680
WIRE -64 -64 -96 -64
WIRE 48 -64 16 -64
WIRE -96 16 -96 -64
WIRE 48 32 48 -64
WIRE -64 64 -96 64
WIRE -144 96 -320 96
WIRE -320 128 -320 96
WIRE -96 144 -96 112
WIRE -64 144 -64 64
WIRE -64 144 -96 144
WIRE -96 192 -96 144
WIRE 48 192 48 112
FLAG -96 192 0
FLAG 48 192 0
FLAG -320 208 0
FLAG -96 -64 vout
SYMBOL voltage 48 16 R0
WINDOW 123 0 0 Left 0
WINDOW 39 0 0 Left 0
SYMATTR InstName VDS
SYMATTR Value 0.5
SYMBOL voltage -320 112 R0
WINDOW 123 24 124 Left 2
WINDOW 39 0 0 Left 0
SYMATTR Value2 AC 1
SYMATTR InstName VGS
SYMATTR Value {vgs}
SYMBOL nmos4 -144 16 R0
SYMATTR InstName M1
SYMATTR Value N_50n
SYMATTR Value2 l={500n+100n*k} w=12u
SYMBOL ind -80 -48 R270
WINDOW 0 32 56 VTop 2
WINDOW 3 5 56 VBottom 2
SYMATTR InstName L1
SYMATTR Value 100T
TEXT -336 288 Left 2 !.lib transistor_models.txt
TEXT -336 320 Left 2 !.ac dec 10 1 100
TEXT -336 384 Left 2 !.meas AC gmro max mag(V(vout))
TEXT -344 -208 Left 2 ;Large inductor is short at DC but open at AC. Because the impedance of an inductor is ZL = sL.\nVDS source is allowed to set the drain voltage at DC but allows vout node to "move" at AC.
TEXT -352 448 Left 2 ;Note: This procedure allows the plotting of gmro but not gm and ro separately.
TEXT -336 352 Left 2 !.step param vgs 0 0.6 0.01
TEXT 152 352 Left 2 !.param k =-4
TEXT 152 320 Left 2 ;Change the range for length sweep (and increment) here.
